test/test_files/validation_tests/case2848rte_resqlim.m
function mpc = case2848rte_resqlim
%CASE2848RTE_RESQLIM

%% MATPOWER Case Format : Version 2
mpc.version = '2';

%%-----  Power Flow Data  -----%%
%% system MVA base
mpc.baseMVA = 100;

%% bus data
%	bus_i	type	Pd	Qd	Gs	Bs	area	Vm	Va	baseKV	zone	Vmax	Vmin
mpc.bus = [
	1	1	20.6	0	0	0	1	1.05484171	-6.19743472	63	1	1.06349	0.936508;
	2	1	20.9	17.2	0	0	1	1.02160581	-9.87233473	225	1	1.08889	0.888889;
	3	1	0	0	0	0	1	1.05656928	-2.90462163	380	1	1.10263	1;
	4	1	0	0	0	0	1	1.04425193	-12.4029646	63	1	1.07937	0.920635;
	5	1	0.4	0.1	0	0	1	0.939827282	-6.8089197	45	1	1	0.888889;
	6	1	-2.3	-20.6	0	0	1	0.940909416	-6.82414041	45	1	1	0.888889;
	7	1	110.5	-25.5	0	0	1	1.05060646	-2.64977313	225	1	1.08444	1;
	8	1	44.7	1.5	0	0	1	1.00666155	-12.293467	63	1	1.06349	0.968254;
	9	1	0	0	0	-21	1	1.04098654	-4.04461334	20	1	1.2	0.8;
	2966	1	0	0	0	-64	1	1.00563195	-7.4063235	20	1	1.2	0.8;
	10	1	0	0	0	0	1	1.05403819	-6.75364532	150	1	1.10667	0.9;
	11	1	31.7	-8.7	0	0	1	1.05577753	-7.00703453	225	1	1.08889	0.933333;
	2571	1	43.7	9.9	0	0	1	1.05331741	-6.74406212	225	1	1.08889	0.933333;
	12	1	0	0	0	0	1	1.06187868	-4.08652235	380	1	1.10526	1;
	13	1	0	0	0	0	1	1.0342061	-9.6059418	225	1	1.09067	1;
	14	1	-4.1	3.7	0	0	1	1.02426165	-9.20579812	63	1	1.06349	0.936508;
	15	1	9	-3.3	0	0	1	1.04704161	-8.22712545	63	1	1.06349	0.936508;
	16	1	120	6.3	0	0	1	1.06413342	-8.50198371	225	1	1.08889	0.933333;
	17	1	35	6.9	0	0	1	1.02936879	-12.2833314	225	1	1.08889	1;
	18	1	45	13.4	0	0	1	1.007585	-9.75330046	225	1	1.08962	1;
	19	1	0	0	0	0	1	1.06135049	-8.246157	63	1	1.08661	0.920635;
	20	1	77.3	29.1	0	0	1	1.02931339	-12.2937417	225	1	1.08889	1;
	21	1	48.4	4	0	0	1	1.02563029	-6.30212713	225	1	1.08889	0.888889;
	22	1	4.6	-11.4	0	0	1	1.10601375	-10.6892544	63	1	1.07249	0.936508;
	23	1	33.3	-5.7	0	0	1	1.03287003	-9.09335357	63	1	1.06349	0.936508;
	24	1	0	0	0	0	1	1.03910865	-6.52988167	225	1	1.08889	1;
	2573	1	0	0	0	0	1	1.03911573	-6.53252789	225	1	1.08889	1;
	25	1	18	5.6	0	0	1	1.02599153	-6.3393762	225	1	1.08889	0.888889;
	26	1	1	-8	0	0	1	1.06324475	-1.54330625	225	1	1.09649	0.986667;
	27	1	22	-5.6	0	0	1	1.05704195	-8.60588464	63	1	1.06349	0.936508;
	28	1	-2.1	-0.1	0	0	1	1.01993177	-10.8026721	225	1	1.08889	1;
	2574	1	39.1	10	0	0	1	1.01988781	-10.8059535	225	1	1.08889	1;
	29	1	7.1	-2.6	0	0	1	1.03874284	-8.23315509	63	1	1.06349	0.936508;
	30	1	3.5	-40	0	0	1	1.03259893	-10.508395	225	1	1.08889	1;
	31	1	7.7	-1.8	0	0	1	1.06155112	-6.23999119	63	1	1.07211	0.936508;
	32	1	12.1	2.1	0	0	1	1.04315027	-8.10928563	63	1	1.06349	0.936508;
	33	1	2.4	-0.4	0	0	1	0.939432775	-7.10586252	45	1	1	0.888889;
	34	1	-0	0	0	0	1	0.939888237	-6.80440334	45	1	1	0.888889;
	35	1	26	0.1	0	0	1	1.03228759	-12.9332855	63	1	1.06349	0.968254;
	36	1	0.7	-4.1	0	0	1	0.986888868	-9.57192295	45	1	1	0.888889;
	37	1	9.3	-5.3	0	0	1	1.05378282	-7.68657562	63	1	1.06349	0.936508;
	39	1	78.4	-4.8	0	0	1	1.05147689	-5.97562164	225	1	1.08934	0.986667;
	40	1	25.1	-3.3	0	0	1	1.03064447	-7.94997769	225	1	1.08889	0.888889;
	41	1	80.4	7.4	0	0	1	1.06385524	-20.0893011	225	1	1.08444	1;
	42	1	37.8	2.9	0	0	1	1.05062306	-6.21383735	63	1	1.0637	0.936508;
	43	1	0	0	0	0	1	1.05607567	-5.03949898	225	1	1.08889	0.933333;
	44	1	29	-10	0	0	1	1.0266735	-13.1821568	63	1	1.06349	0.968254;
	45	1	97.4	-3	0	0	1	1.02766861	-7.97482744	225	1	1.08889	1;
	46	1	0	0	0	0	1	1.05655479	-2.89525426	380	1	1.10526	1;
	2575	1	0	0	0	0	1	1.05656408	-2.89138111	380	1	1.10526	1;
	47	1	21.3	-2.6	0	0	1	1.03366775	-4.98224467	63	1	1.06606	0.936508;
	48	1	-0.3	0.8	0	0	1	1.0682321	-6.63388688	63	1	1.06735	0.936508;
	49	1	11.6	3.2	0	0	1	1.03045508	-5.9354188	63	1	1.06349	0.968254;
	2576	1	9.3	4.7	0	0	1	1.03032858	-6.68024374	63	1	1.06349	0.968254;
	50	1	0	0	0	0	1	1.05800703	-5.61078826	225	1	1.08444	1;
	51	1	66.6	0	0	0	1	1.04305582	-9.17387973	225	1	1.08444	1;
	52	1	0	0	0	0	1	1.02967741	-12.1512177	225	1	1.08889	1;
	2942	1	53.9	11.2	0	0	1	1.01738872	-11.9571425	225	1	1.08889	1;
	53	1	7.9	-4.7	0	0	1	1.03824553	-9.60599587	63	1	1.06349	0.968254;
	54	1	0	0	0	0	1	1.06250168	-8.69577778	150	1	1.08	0.966667;
	55	1	40.5	8.5	0	0	1	1.01763076	-22.3950443	225	1	1.09459	1;
	56	1	0	0	0	0	1	1.0282441	-20.1213663	380	1	1.10526	1;
	57	1	80.2	-7.7	0	0	1	1.05168992	-9.23398093	225	1	1.08889	0.986667;
	58	1	0	0	0	-64	1	1.02140378	-6.45467912	20	1	1.2	0.8;
	59	1	35.3	-9.2	0	0	1	1.02572665	-6.22052795	225	1	1.08889	0.968889;
	60	1	58.9	2.6	0	0	1	1.02924711	-4.99405838	380	1	1.10526	1;
	61	1	5.5	1.7	0	0	1	1.0496503	-7.60262161	63	1	1.06349	0.936508;
	62	1	0.6	0.7	0	0	1	0.996668517	-13.4938013	63	1	1.06349	0.968254;
	63	1	28.6	4.1	0	0	1	0.996877199	-13.4911733	63	1	1.06349	0.968254;
	2577	1	0	0	0	0	1	0.9968454	-14.762187	63	1	1.06349	0.968254;
	64	1	39.6	9.4	0	0	1	1.06737063	-5.68955034	225	1	1.08889	0.933333;
	65	1	0	0	0	0	1	0.99682755	-14.7656559	63	1	1.06349	0.968254;
	66	1	12.5	-6.5	0	0	1	0.971937947	-6.28635863	45	1	1	0.888889;
	2578	3	0	0	0	0	1	1	-6.26418643	45	1	1	0.888889;
	67	1	0.4	3.2	0	0	1	1.03100872	-7.57119989	225	1	1.08889	0.888889;
	2579	1	42.5	7.2	0	0	1	1.03059532	-7.66403888	225	1	1.08889	0.888889;
	68	1	4.2	-2.2	0	0	1	1.03364338	-15.9247263	20	1	1.2	0.8;
	69	1	139.3	4.7	0	0	1	1.03362879	-15.9227502	225	1	1.08685	1;
	70	1	83.7	-8.3	0	0	1	1.03497243	-11.6474227	225	1	1.08889	1;
	71	2	0	0	0	0	1	1.079	-9.40305859	150	1	1.10885	0.9;
	72	1	0	0	0	0	1	1.02513597	-10.6419731	225	1	1.08889	1;
	2580	1	0	0	0	0	1	1.02513575	-10.6419719	225	1	1.08889	1;
	74	1	0	0	0	-80	1	1.02513453	-10.641965	225	1	1.08889	1;
	75	1	15.2	5.4	0	0	1	1.03991396	-5.1075451	63	1	1.06349	0.936508;
	76	2	0	0	0	0	1	0.953	-5.45753572	45	1	1	0.888889;
	77	1	5.7	-1.3	0	0	1	1.06075012	-9.03186534	63	1	1.08481	0.920635;
	78	1	7.8	5.8	0	0	1	1.02665228	-8.30697072	225	1	1.08889	1;
	79	1	14	-4.6	0	0	1	1.0271548	-23.0221751	63	1	1.07937	0.920635;
	80	1	7.1	-2.3	0	0	1	1.05726098	-10.1154634	63	1	1.08744	0.920635;
	81	1	0	0	0	0	1	1.05351904	-11.7988852	225	1	1.08889	1;
	82	1	59.6	24	0	0	1	1.03021963	-8.13477872	225	1	1.08889	0.888889;
	83	1	27.8	-7.5	0	0	1	1.0169759	-17.56785	63	1	1.06349	0.967399;
	84	1	61.1	-4.5	0	0	1	1.00899344	-6.70165748	225	1	1.08889	0.968889;
	85	1	0	0	0	0	1	1.00582697	-4.64287426	380	1	1.10526	1;
	86	1	31.8	1	0	0	1	1.01719192	-15.4899421	63	1	1.06349	0.968254;
	87	1	22.8	-0.9	0	0	1	1.02090776	-7.73109515	63	1	1.06349	0.968254;
	88	1	2.1	0.8	0	0	1	1.01468922	-10.7037197	63	1	1.06349	0.968254;
	89	1	30.5	6.3	0	0	1	0.996547445	-8.79828819	63	1	1.06349	0.968254;
	2581	1	32	12.1	0	0	1	0.996513735	-8.72606965	63	1	1.06349	0.968254;
	90	1	0	0	0	0	1	1.04092792	-8.64665286	225	1	1.08444	1;
	2582	1	0	0	0	0	1	1.04104821	-8.64623002	225	1	1.08444	1;
	91	1	89.3	-15.7	0	0	1	1.03591516	-12.8243234	225	1	1.08889	1;
	92	1	6.4	-11.6	0	0	1	1.07764549	-4.18626207	225	1	1.09041	0.933333;
	93	1	0	0	0	0	1	1.078016	-9.50334012	150	1	1.10907	0.9;
	94	1	37.7	57.2	0	0	1	1.03375033	-7.4032003	225	1	1.08444	1;
	2583	1	33.4	-0.5	0	0	1	1.03470068	-7.40907189	225	1	1.08444	1;
	95	1	0	0	0	0	1	1.03564677	-7.73095858	225	1	1.08889	0.977778;
	96	1	9	0.8	0	0	1	1.04309047	-5.90020459	225	1	1.08889	0.888889;
	97	1	35.8	4.5	0	0	1	1.00247432	-14.3945682	63	1	1.06349	0.968254;
	98	1	16.5	-8.7	0	0	1	1.05016429	-7.11585789	225	1	1.08889	0.933333;
	99	1	28.6	5	0	0	1	1.0341214	-9.66280201	225	1	1.08889	1;
	2584	1	14.5	3.6	0	0	1	1.00688522	-9.91990915	225	1	1.08889	1;
	100	1	7.3	-5.1	0	0	1	1.05268113	-12.0926725	225	1	1.08889	1;
	101	1	6.4	2.5	0	0	1	1.04792145	-5.62228825	225	1	1.08889	0.986667;
	102	1	0	0	0	0	1	1.03544441	-7.43890849	225	1	1.08889	0.888889;
	2585	1	0	0	0	0	1	1.03251224	-7.54090377	225	1	1.08889	0.888889;
	103	1	0	0	0	0	1	1.03543334	-5.6951175	380	1	1.10526	1;
	104	1	45.6	7	0	0	1	1.0201264	-10.9654817	225	1	1.08889	1;
	2586	1	19.1	5.8	0	-80	1	1.02521881	-9.7615611	225	1	1.08889	1;
	105	1	10.1	-0.9	0	0	1	1.02292963	-11.5683483	63	1	1.07937	0.920635;
	106	1	0	0	0	0	1	1.05490116	-6.13683936	225	1	1.08889	0.977778;
	2587	1	0	0	0	0	1	1.05491683	-6.13707975	225	1	1.08889	0.977778;
	107	1	8.4	3.5	0	0	1	1.03362187	-9.16938459	63	1	1.06349	0.968254;
	108	1	39.7	-6.4	0	0	1	1.05361377	-6.67987539	225	1	1.08444	1;
	109	1	0	0	0	0	1	1.04508431	-5.51527922	225	1	1.08444	1;
	110	1	0	0	0	0	1	1.04247095	0.820382507	380	1	1.10263	1;
	111	1	62.2	-16.1	0	0	1	1.04495687	-5.57887131	225	1	1.08444	1;
	112	1	2.2	-1	0	0	1	1.00835086	-9.63579706	225	1	1.09035	1;
	2588	1	12.3	-2	0	0	1	1.0083239	-9.64237815	225	1	1.09035	1;
	113	1	5	-3.8	0	0	1	1.05835484	-2.79695569	225	1	1.08889	0.888889;
	114	1	30	0	0	0	1	1.04534661	-8.37925483	63	1	1.06349	0.936508;
	115	1	11.7	1.8	0	0	1	1.02990287	-7.3206876	225	1	1.08889	0.888889;
	116	1	51.9	15.9	0	0	1	1.00893635	-7.31547084	225	1	1.08889	0.888889;
	117	1	2.6	0.2	0	0	1	1.04057823	-7.6135884	63	1	1.06349	0.968254;
	118	1	38	3.1	0	0	1	1.01298033	-25.0370553	63	1	1.07937	0.920635;
	119	1	24	-7.3	0	0	1	1.02780989	-15.2144159	63	1	1.06349	0.968254;
	120	1	0	0	0	0	1	1.06385919	-6.14884763	63	1	1.06863	0.936508;
	121	1	8	2.5	0	0	1	1.03764976	-18.274006	63	1	1.06349	0.968254;
	2589	1	9.9	3.5	0	0	1	1.03800644	-18.2812329	63	1	1.06349	0.968254;
	122	1	77.1	-3.9	0	0	1	1.02577238	-7.80651723	225	1	1.08889	1;
	123	1	21.2	4.4	0	0	1	1.03924458	-13.6904185	63	1	1.07937	0.920635;
	124	1	0	-4.6	0	0	1	1.05977795	-10.0153111	63	1	1.08203	0.920635;
	125	1	0	0	0	0	1	1.04277538	-18.3535966	63	1	1.07937	0.920635;
	126	1	0	0	0	0	1	1.01501985	-12.662227	225	1	1.08889	1;
	127	1	0	0	0	0	1	1.05252813	-12.7044523	380	1	1.10526	1;
	128	1	17.1	1.5	0	0	1	1.05495373	-6.2713671	63	1	1.06349	0.936508;
	129	1	18.2	12.2	0	0	1	1.04029388	-7.36948988	63	1	1.06349	0.936508;
	130	1	-13.2	16.1	0	0	1	1.04460072	-12.9091325	63	1	1.07937	0.920635;
	131	1	0	0	0	0	1	1.05074919	-11.2049774	225	1	1.08889	1;
	132	1	81.2	18.3	0	0	1	1.04849126	-10.3740764	225	1	1.08889	1;
	133	2	9.6	3.3	0	0	1	1.028	-21.2091284	63	1	1.06538	0.968254;
	134	1	0	0	0	0	1	1.03556696	-15.2769526	150	1	1.08	0.966667;
	135	2	-8.9	-4.4	0	0	1	1.066	-10.7108239	63	1	1.07937	0.920635;
	136	1	-10.6	-2.1	0	0	1	1.03348906	-3.93241432	225	1	1.08889	0.986667;
	137	1	14.1	-3.7	0	0	1	1.01152485	-12.5992456	63	1	1.06349	0.968254;
	138	1	11.3	-2.7	0	0	1	1.07110607	-4.19950989	225	1	1.08444	1;
	139	1	9.4	-2.2	0	0	1	1.01649361	-20.6040874	63	1	1.06349	0.968254;
	140	1	0	0	0	0	1	1.02958029	-2.27096864	380	1	1.10526	1;
	2590	1	0	0	0	0	1	1.03059733	-2.59011435	380	1	1.10526	1;
	141	1	11.1	4.5	0	0	1	1.02804174	-7.84868922	225	1	1.08889	1;
	142	1	7.2	5.2	0	0	1	1.03528643	-10.3876255	225	1	1.08889	1;
	143	1	20.9	-1.3	0	0	1	1.0179813	-14.1145841	63	1	1.06349	0.968254;
	144	1	33.4	6.5	0	0	1	1.06443032	-11.3074797	150	1	1.1	0.9;
	145	1	61.8	-3.3	0	0	1	1.03191845	-14.1373699	225	1	1.08925	1;
	146	2	0	-0	0	0	1	1.02	-10.8246415	225	1	1.08889	1;
	147	1	0	0	0	0	1	1.05502088	-7.10080611	225	1	1.08889	0.933333;
	148	1	0	0	0	0	1	1.06178231	-4.064212	380	1	1.10526	1;
	2591	1	0	0	0	0	1	1.06181356	-4.05799987	380	1	1.10526	1;
	149	1	0	0	0	0	1	1.02965596	-12.2639814	225	1	1.08889	1;
	2592	1	61.8	10.2	0	0	1	1.01655434	-12.1388517	225	1	1.08889	1;
	150	1	0	0	0	0	1	1.01064886	-5.23616968	225	1	1.08889	0.986667;
	151	1	9.8	4.5	0	0	1	1.02948286	-12.2743471	225	1	1.08889	1;
	152	1	0	0	0	0	1	1.06593452	-3.4690966	20	1	1.2	0.8;
	153	1	88.2	-7.1	0	0	1	1.05775916	-3.06287844	225	1	1.08889	0.933333;
	154	1	0	0	0	0	1	1.05878057	-1.22827083	380	1	1.10526	1;
	155	1	23.8	-12.3	0	0	1	1.02651598	-6.19073221	225	1	1.08889	1;
	156	1	18.2	-0.6	0	0	1	1.07773696	-7.39025574	63	1	1.06503	0.936508;
	157	1	0.4	0.2	0	0	1	1.03810896	-9.23977786	63	1	1.06349	0.968254;
	158	1	18.7	-2.5	0	0	1	1.02978357	-14.8254498	63	1	1.07937	0.920635;
	159	1	19.2	-1	0	0	1	1.01730703	-16.1055157	63	1	1.06349	0.968254;
	160	1	4	0.2	0	0	1	1.05567316	-8.52554632	63	1	1.06349	0.936508;
	161	1	0	0	0	0	1	1.02319557	-14.7840734	63	1	1.15	0.8;
	162	1	2.8	3.9	0	0	1	1.03532266	-11.060918	225	1	1.09053	1;
	163	1	0	0	0	0	1	1.03596644	-23.6006245	63	1	1.06349	0.968254;
	164	1	68.7	-27.8	0	0	1	1.0431181	-15.1211347	225	1	1.09791	1;
	165	1	70.9	-7.8	0	0	1	1.03977624	-3.83040148	225	1	1.08889	0.986667;
	166	1	35.7	1.2	0	0	1	1.01417442	-10.7384115	63	1	1.06349	0.968254;
	167	1	66.9	15.7	0	0	1	1.03420421	-9.60063683	225	1	1.09067	1;
	168	1	10.2	-5.9	0	0	1	1.05977363	-8.04643453	63	1	1.06349	0.936508;
	169	1	22.5	-8.3	0	0	1	1.03607598	-10.8826654	63	1	1.06349	0.968254;
	170	1	3.1	1.2	0	0	1	1.04671776	-7.75674582	63	1	1.06822	0.936508;
	171	1	103.9	36.4	0	0	1	1.02798408	-8.32407943	225	1	1.08889	0.924444;
	172	2	-0	0	0	0	1	1.02792228	-7.28005803	63	1	1.06349	0.968254;
	173	1	46.9	-16.3	0	0	1	1.05676453	-0.708520031	225	1	1.09616	0.986667;
	174	1	0	0	0	0	1	1.05916838	-0.131684994	380	1	1.10526	1;
	175	1	83.4	-19.9	0	0	1	1.05105045	-13.5247006	225	1	1.08444	1;
	176	1	0	0	0	-64	1	1.01162524	-19.2435014	20	1	1.2	0.8;
	177	1	0	0	0	0	1	0.975079582	-20.594475	63	1	1.06349	0.960855;
	178	1	0	0	0	0	1	1.06211453	-18.9411468	225	1	1.08444	1;
	179	1	0	0	0	0	1	1.05830753	-16.5190021	380	1	1.10263	1;
...
];

%% generator data
%	bus	Pg	Qg	Qmax	Qmin	Vg	mBase	status	Pmax	Pmin	Pc1	Pc2	Qc1min	Qc1max	Qc2min	Qc2max	ramp_agc	ramp_10	ramp_30	ramp_q	apf
mpc.gen = [
	1279	7	2.95536596	15	-15	1.037	100	1	35	7	0	0	0	0	0	0	0	0	0	0	0;
	1210	20.27	0.049775071	20	-15	1.059	100	1	36.1	7.22	0	0	0	0	0	0	0	0	0	0	0;
	751	44	21	21	-9	1.01	100	1	46	9.2	0	0	0	0	0	0	0	0	0	0	0;
	978	2.18	0.1	0.1	-0.1	1.071	100	1	4	0	0	0	0	0	0	0	0	0	0	0	0;
	978	6	1	1	0.9	1.071	100	1	7	1.4	0	0	0	0	0	0	0	0	0	0	0;
	158	-0.1	0	0	0	1.024	100	1	2.7	0	0	0	0	0	0	0	0	0	0	0	0;
	1217	11.99	-1.8793393	5	-5	1.053	100	1	13	2.6	0	0	0	0	0	0	0	0	0	0	0;
	367	27.57	-0.051860827	27	-9	1.036	100	1	50	10	0	0	0	0	0	0	0	0	0	0	0;
	1127	-0.66	0	0	0	1.033	100	1	16	3.2	0	0	0	0	0	0	0	0	0	0	0;
	460	12.4	4.52615064	40	-40	1.077	100	1	62	12.4	0	0	0	0	0	0	0	0	0	0	0;
	968	15.38	-0.0120751678	10	-10	1.07	100	1	18	3.6	0	0	0	0	0	0	0	0	0	0	0;
	1827	21	-12	7	-12	1.05	100	1	22	4.4	0	0	0	0	0	0	0	0	0	0	0;
	1466	37.99	3.75220269	5	-15	1.07	100	1	40	1	0	0	0	0	0	0	0	0	0	0	0;
	2863	15.76	-6	6	-6	1.015	100	1	40	1	0	0	0	0	0	0	0	0	0	0	0;
	1466	37.99	3.75220269	5	-15	1.07	100	1	40	1	0	0	0	0	0	0	0	0	0	0	0;
	2863	15.76	-6	6	-6	1.015	100	1	40	1	0	0	0	0	0	0	0	0	0	0	0;
	1072	4.88	1	1	0.9	1.08	100	1	12	2.4	0	0	0	0	0	0	0	0	0	0	0;
	1072	0	0	1	0.9	1.08	100	0	14	2.8	0	0	0	0	0	0	0	0	0	0	0;
	1072	4.88	1	1	0.9	1.08	100	1	12	2.4	0	0	0	0	0	0	0	0	0	0	0;
	642	-0.62	0.22	3	-3	1.013	100	1	10.33	2.07	0	0	0	0	0	0	0	0	0	0	0;
	642	-0.22	0.22	3	-3	1.013	100	1	10.33	2.07	0	0	0	0	0	0	0	0	0	0	0;
	542	5	1.9931259	22	-10	1.011	100	1	50	5	0	0	0	0	0	0	0	0	0	0	0;
	773	0.94	0	0	0	1.039	100	1	12	2.4	0	0	0	0	0	0	0	0	0	0	0;
	399	3.81	0	0	0	1.05	100	1	13.8	2.76	0	0	0	0	0	0	0	0	0	0	0;
	399	-0.18	0	0	0	1.05	100	1	1.2	0	0	0	0	0	0	0	0	0	0	0	0;
	21	18.33	0	0	0	1.026	100	1	24	4.8	0	0	0	0	0	0	0	0	0	0	0;
	21	21.59	0	0	0	1.026	100	1	27.6	5.52	0	0	0	0	0	0	0	0	0	0	0;
	899	12.18	0	0	0	1.057	100	1	18	3.6	0	0	0	0	0	0	0	0	0	0	0;
	899	15.21	0	0	0	1.057	100	1	21	4.2	0	0	0	0	0	0	0	0	0	0	0;
	2618	1.2	0	0	0	1.054	100	1	6	1.2	0	0	0	0	0	0	0	0	0	0	0;
	2618	11.71	2.41075904	10	-6	1.054	100	1	37.5	7.5	0	0	0	0	0	0	0	0	0	0	0;
	285	1.2	0	0	0	1.058	100	1	6	1.2	0	0	0	0	0	0	0	0	0	0	0;
	285	35.99	0.566458378	10	-6	1.058	100	1	37.5	7.5	0	0	0	0	0	0	0	0	0	0	0;
	135	10.32	0.30096132	5	-6	1.066	100	1	13	2.6	0	0	0	0	0	0	0	0	0	0	0;
	53	3.6	0.8	0.8	-0.8	1.05	100	1	18	3.6	0	0	0	0	0	0	0	0	0	0	0;
	53	17	0.8	0.8	-0.8	1.05	100	1	18	3.6	0	0	0	0	0	0	0	0	0	0	0;
	596	2.26	0	0	0	1.037	100	1	4	0	0	0	0	0	0	0	0	0	0	0	0;
	958	1.09	0	0	0	1.047	100	1	4.6	0	0	0	0	0	0	0	0	0	0	0	0;
	1679	19.98	0.746066885	6	-4	1.058	100	1	21	4.2	0	0	0	0	0	0	0	0	0	0	0;
	1679	5.46	0.815594912	6.7	-4.5	1.058	100	1	21	4.2	0	0	0	0	0	0	0	0	0	0	0;
	1157	-0.71	0	0	0	1.007	100	1	7.2	1.44	0	0	0	0	0	0	0	0	0	0	0;
	513	10	4.75487958	5	1	1.024	100	1	11	2.2	0	0	0	0	0	0	0	0	0	0	0;
	513	10	4.75487958	5	1	1.024	100	1	11	2.2	0	0	0	0	0	0	0	0	0	0	0;
	371	6	4.02882623	5	-5	1.055	100	1	8	1.6	0	0	0	0	0	0	0	0	0	0	0;
	371	1.61	4.02882623	5	-5	1.055	100	1	8	1.6	0	0	0	0	0	0	0	0	0	0	0;
	976	14.97	-10.7709245	12	-15	1.046	100	1	35	7	0	0	0	0	0	0	0	0	0	0	0;
	976	7.85	-10.7709245	12	-15	1.046	100	1	35	7	0	0	0	0	0	0	0	0	0	0	0;
	2754	-0.64	0	0	0	1.029	100	1	11.5	2.3	0	0	0	0	0	0	0	0	0	0	0;
	749	7.69	0.617096029	5	-5	1	100	1	8.5	1.7	0	0	0	0	0	0	0	0	0	0	0;
	1188	19	2	2	1.9	1.077	100	1	20	4	0	0	0	0	0	0	0	0	0	0	0;
	1254	4.57	-7	7	-7	1.024	100	1	24	4.8	0	0	0	0	0	0	0	0	0	0	0;
	252	2.21	3.35309196	8	-5	0.998	100	1	11	2.2	0	0	0	0	0	0	0	0	0	0	0;
	252	3.59	2.06800089	6	-5	0.998	100	1	9	1.8	0	0	0	0	0	0	0	0	0	0	0;
	252	2.51	3.35309196	8	-5	0.998	100	1	11	2.2	0	0	0	0	0	0	0	0	0	0	0;
	252	3.67	2.06800089	6	-5	0.998	100	1	9	1.8	0	0	0	0	0	0	0	0	0	0	0;
	504	10.92	6.5	6.5	-6.5	0.983	100	1	12.4	2.48	0	0	0	0	0	0	0	0	0	0	0;
	115	10.69	0	0	0	1.03	100	1	25.3	5.06	0	0	0	0	0	0	0	0	0	0	0;
	967	-1.06	0	0	0	1.07	100	1	2.3	0	0	0	0	0	0	0	0	0	0	0	0;
	1642	2	1	1	-1	1.035	100	1	3	0	0	0	0	0	0	0	0	0	0	0	0;
	1811	2.7	-5.5	5.5	-5.5	1.03	100	1	9	1.8	0	0	0	0	0	0	0	0	0	0	0;
	2634	11.1	1.69045692	7	-7	1.06	100	1	14	2.8	0	0	0	0	0	0	0	0	0	0	0;
	326	12.95	2.39075813	7	-7	1.06	100	1	14	2.8	0	0	0	0	0	0	0	0	0	0	0;
	1829	11.99	-7.7	7.7	-7.7	1.03	100	1	12.8	2.56	0	0	0	0	0	0	0	0	0	0	0;
	1314	25.63	-0.0739089255	19	-19	1.084	100	1	39	7.8	0	0	0	0	0	0	0	0	0	0	0;
	71	13.35	0.440256633	10	-4	1.079	100	1	30	6	0	0	0	0	0	0	0	0	0	0	0;
	93	3.14	1.9	2	1.9	1.078	100	1	6	1.2	0	0	0	0	0	0	0	0	0	0	0;
	129	6.89	-4	4	-4	1.029	100	1	11	2.2	0	0	0	0	0	0	0	0	0	0	0;
	1594	2.4	5	5	-5	1.052	100	1	12	2.4	0	0	0	0	0	0	0	0	0	0	0;
	1594	2.4	5	5	-5	1.052	100	1	12	2.4	0	0	0	0	0	0	0	0	0	0	0;
	1354	2.16	2	2	-2	1.032	100	1	5	0	0	0	0	0	0	0	0	0	0	0	0;
	1133	-0.88	0	0	0	1.027	100	1	17.25	3.45	0	0	0	0	0	0	0	0	0	0	0;
	1405	15.65	-0.185700697	12	-8	1.032	100	1	37.8	7.56	0	0	0	0	0	0	0	0	0	0	0;
	2850	15.8	-0.182777186	12	-8	1.032	100	1	37.8	7.56	0	0	0	0	0	0	0	0	0	0	0;
	2849	15.02	-0.197155767	12	-8	1.032	100	1	37.8	7.56	0	0	0	0	0	0	0	0	0	0	0;
	1122	0.89	0	0	0	1.037	100	1	6.9	1.38	0	0	0	0	0	0	0	0	0	0	0;
	1708	44.49	0.0170062776	27	-9	1.039	100	1	45	44	0	0	0	0	0	0	0	0	0	0	0;
	1708	44.49	0.0170062776	27	-9	1.039	100	1	45	44	0	0	0	0	0	0	0	0	0	0	0;
	1658	1.67	0	0	0	1.042	100	1	29.9	5.98	0	0	0	0	0	0	0	0	0	0	0;
	2884	4.54	0	0	0	1.045	100	1	13.7	2.74	0	0	0	0	0	0	0	0	0	0	0;
	1154	15.21	0	0	0	1.036	100	1	20.8	4.16	0	0	0	0	0	0	0	0	0	0	0;
	231	1.66	-8.3	8.3	-8.3	1.04	100	1	8.3	1.66	0	0	0	0	0	0	0	0	0	0	0;
	2887	11.2	-0.0799764057	7	-3	1.021	100	1	23.7	4.74	0	0	0	0	0	0	0	0	0	0	0;
	2888	4.74	-0.0339644123	7	-3	1.021	100	1	23.7	4.74	0	0	0	0	0	0	0	0	0	0	0;
	2889	11.28	-0.0802546776	7	-3	1.021	100	1	23.7	4.74	0	0	0	0	0	0	0	0	0	0	0;
	1666	11.29	-0.0802889601	7	-3	1.021	100	1	23.7	4.74	0	0	0	0	0	0	0	0	0	0	0;
	499	14.8	1	1	0.9	1.114	100	1	17	3.4	0	0	0	0	0	0	0	0	0	0	0;
	499	0	0	1	0.9	1.114	100	0	7	1.4	0	0	0	0	0	0	0	0	0	0	0;
	499	3.4	1	1	0.9	1.114	100	1	17	3.4	0	0	0	0	0	0	0	0	0	0	0;
	2709	10.44	0.0111440723	4	-4	1.01	100	1	24	4.8	0	0	0	0	0	0	0	0	0	0	0;
	709	13.46	0.0907692232	4	-4	1.01	100	1	24	4.8	0	0	0	0	0	0	0	0	0	0	0;
	2710	4.81	-0.0801715669	4	-4	1.01	100	1	24	4.8	0	0	0	0	0	0	0	0	0	0	0;
	2708	7.56	-0.0448556719	4	-4	1.01	100	1	24	4.8	0	0	0	0	0	0	0	0	0	0	0;
	1280	15.18	0	0	0	1.039	100	1	18	3.6	0	0	0	0	0	0	0	0	0	0	0;
	1493	0	0	11	-11	0.998	100	0	18	3.6	0	0	0	0	0	0	0	0	0	0	0;
	745	9.98	-17.7293365	8	-18	1.02	100	1	29	5.8	0	0	0	0	0	0	0	0	0	0	0;
	2727	12.62	-12.7739186	5	-18	1.029	100	1	29	5.8	0	0	0	0	0	0	0	0	0	0	0;
	1445	39.55	0	0	0	1.026	100	1	55	11	0	0	0	0	0	0	0	0	0	0	0;
	564	-0.83	0	0	0	1.01	100	1	10	2	0	0	0	0	0	0	0	0	0	0	0;
	1047	-0.34	0	0	0	1.038	100	1	12	2.4	0	0	0	0	0	0	0	0	0	0	0;
	1047	-0.6	0	0	0	1.038	100	1	2	0	0	0	0	0	0	0	0	0	0	0	0;
	1335	0.31	-1	3	-1	1.03	100	1	2	0	0	0	0	0	0	0	0	0	0	0	0;
	2624	14.33	1.46984695	15	-17	1.07	100	1	31	6.2	0	0	0	0	0	0	0	0	0	0	0;
	298	29	-0.422341046	15	-17	1.06	100	1	31	6.2	0	0	0	0	0	0	0	0	0	0	0;
	298	29	-0.422341046	15	-17	1.06	100	1	31	6.2	0	0	0	0	0	0	0	0	0	0	0;
	2625	29	-0.422341046	15	-17	1.06	100	1	31	6.2	0	0	0	0	0	0	0	0	0	0	0;
	2625	29	-0.422341046	15	-17	1.06	100	1	31	6.2	0	0	0	0	0	0	0	0	0	0	0;
	2624	28.64	1.46984695	15	-17	1.07	100	1	31	6.2	0	0	0	0	0	0	0	0	0	0	0;
	2947	10.93	0	0	-0.01	1.029	100	1	24	4.8	0	0	0	0	0	0	0	0	0	0	0;
	2718	4.81	0.23605701	8	-7	1.029	100	1	24	4.8	0	0	0	0	0	0	0	0	0	0	0;
	2720	4.8	0.236164371	8	-7	1.029	100	1	24	4.8	0	0	0	0	0	0	0	0	0	0	0;
	741	10.85	0.191264511	8	-7	1.029	100	1	24	4.8	0	0	0	0	0	0	0	0	0	0	0;
	2719	6.96	0.215523027	8	-7	1.029	100	1	24	4.8	0	0	0	0	0	0	0	0	0	0	0;
	2721	11.54	0.188695723	8	-7	1.029	100	1	24	4.8	0	0	0	0	0	0	0	0	0	0	0;
	283	8.43	0.0989434711	8	-8	1.024	100	1	23.5	4.7	0	0	0	0	0	0	0	0	0	0	0;
	1506	24.99	-4.94944025	6	-11	1.029	100	1	27	5.4	0	0	0	0	0	0	0	0	0	0	0;
	1506	7.94	-4.94944025	6	-11	1.029	100	1	27	5.4	0	0	0	0	0	0	0	0	0	0	0;
	1847	30	12	12	-8	1.035	100	1	32	6.4	0	0	0	0	0	0	0	0	0	0	0;
	1398	9.19	0	0	0	1.021	100	1	20.02	4	0	0	0	0	0	0	0	0	0	0	0;
	1398	8.94	0	0	0	1.021	100	1	20.35	4.07	0	0	0	0	0	0	0	0	0	0	0;
	225	9	-2.6419949	45	-45	1.05	100	1	45	9	0	0	0	0	0	0	0	0	0	0	0;
	225	37.36	-2.6419949	45	-45	1.05	100	1	45	9	0	0	0	0	0	0	0	0	0	0	0;
	1607	1.57	0	0	0	1.038	100	1	1.74	0	0	0	0	0	0	0	0	0	0	0	0;
	314	17.53	10	10	-10	0.986	100	1	20	4	0	0	0	0	0	0	0	0	0	0	0;
	2680	44.01	2.48989219	100	-60	1.022	100	1	239	44	0	0	0	0	0	0	0	0	0	0	0;
	582	0	0	70	-45	0.892	100	0	169	82	0	0	0	0	0	0	0	0	0	0	0;
	2978	0	0	70	-45	0.892	100	0	169	82	0	0	0	0	0	0	0	0	0	0	0;
	2977	44.01	2.48989219	100	-60	1.022	100	1	239	44	0	0	0	0	0	0	0	0	0	0	0;
	240	47.8	2.00431526	80	-75	1.075	100	1	239	47.8	0	0	0	0	0	0	0	0	0	0	0;
	1655	7.18	0	0	0	1.016	100	1	12	2.4	0	0	0	0	0	0	0	0	0	0	0;
	1655	3.68	0	0	0	1.016	100	1	4	0	0	0	0	0	0	0	0	0	0	0	0;
	1150	36.15	0	0	0	1.047	100	1	54	10.8	0	0	0	0	0	0	0	0	0	0	0;
	1447	4.82	2	2	-3	1.063	100	1	7	1.4	0	0	0	0	0	0	0	0	0	0	0;
	906	0	0	8	-8	1.077	100	0	21	4.2	0	0	0	0	0	0	0	0	0	0	0;
	1474	0	0	1	-1	1.039	100	0	2	0	0	0	0	0	0	0	0	0	0	0	0;
	1474	1.6	3	3	-3	1.039	100	1	8	1.6	0	0	0	0	0	0	0	0	0	0	0;
	1474	1.6	3	3	-3	1.039	100	1	8	1.6	0	0	0	0	0	0	0	0	0	0	0;
	963	7.99	-2	1	-2	0.977	100	1	8.9	1.78	0	0	0	0	0	0	0	0	0	0	0;
	962	0.19	0	0	0	1.033	100	1	22	4.4	0	0	0	0	0	0	0	0	0	0	0;
	923	11	0.879145726	5	-5	1.056	100	1	12	2.4	0	0	0	0	0	0	0	0	0	0	0;
	1153	14.99	-17.3	17.3	-17.3	1.04	100	1	16	3.2	0	0	0	0	0	0	0	0	0	0	0;
	1153	15.99	-10	10	-10	1.04	100	1	16.8	3.36	0	0	0	0	0	0	0	0	0	0	0;
	274	5.58	1.91334477	3.7	-3.7	1.054	100	1	6.7	1.34	0	0	0	0	0	0	0	0	0	0	0;
	274	1.26	1.55136063	3	-3	1.054	100	1	5.6	1.12	0	0	0	0	0	0	0	0	0	0	0;
	1776	9	5	5	-5	1.035	100	1	10	2	0	0	0	0	0	0	0	0	0	0	0;
	1776	9	5	5	-5	1.035	100	1	10	2	0	0	0	0	0	0	0	0	0	0	0;
	184	22	-17	8	-17	1.056	100	1	23.4	4.68	0	0	0	0	0	0	0	0	0	0	0;
	1657	5.2	-17	16	-17	1.038	100	1	26	5.2	0	0	0	0	0	0	0	0	0	0	0;
	1657	5.2	-17	16	-17	1.038	100	1	26	5.2	0	0	0	0	0	0	0	0	0	0	0;
	1761	0.95	-0.1	0.1	-0.1	1.079	100	1	2.5	0	0	0	0	0	0	0	0	0	0	0	0;
	1761	4.85	0.9	1	0.9	1.079	100	1	11	2.2	0	0	0	0	0	0	0	0	0	0	0;
	1868	6	3.10802807	18	-18	1.055	100	1	30	6	0	0	0	0	0	0	0	0	0	0	0;
	1868	21.64	3.10802807	18	-18	1.055	100	1	30	6	0	0	0	0	0	0	0	0	0	0	0;
	731	0	0	26	-26	1.053	100	0	43	8.6	0	0	0	0	0	0	0	0	0	0	0;
	2715	0	0	20	-20	1.051	100	0	38	7.6	0	0	0	0	0	0	0	0	0	0	0;
	1263	15.21	0.473134698	14	-14	1.051	100	1	23.1	4.62	0	0	0	0	0	0	0	0	0	0	0;
	1263	15.21	0.473134698	14	-14	1.051	100	1	23.1	4.62	0	0	0	0	0	0	0	0	0	0	0;
	161	3.6	5	5	-5	1.063	100	1	18	3.6	0	0	0	0	0	0	0	0	0	0	0;
	604	5.82	6	6	-6	1.054	100	1	10.2	2.04	0	0	0	0	0	0	0	0	0	0	0;
	918	2.63	0	0	0	1.029	100	1	26	5.2	0	0	0	0	0	0	0	0	0	0	0;
	1760	10.99	-1	1	-1	1.045	100	1	11.5	2.3	0	0	0	0	0	0	0	0	0	0	0;
	1760	2.3	-1	1	-1	1.045	100	1	11.5	2.3	0	0	0	0	0	0	0	0	0	0	0;
	1414	11.99	-0.361211626	7.8	-7.8	1.051	100	1	13	2.6	0	0	0	0	0	0	0	0	0	0	0;
	1414	10.99	-0.333426117	7.2	-7.2	1.051	100	1	12	2.4	0	0	0	0	0	0	0	0	0	0	0;
	662	21.23	-0.0409053238	20	-18	1.059	100	1	40	8	0	0	0	0	0	0	0	0	0	0	0;
	2697	23.65	0.0694614707	20	-18	1.059	100	1	40	8	0	0	0	0	0	0	0	0	0	0	0;
	2696	23.63	0.068475757	20	-18	1.059	100	1	40	8	0	0	0	0	0	0	0	0	0	0	0;
	1346	2.4	0.308165683	7	-7	1.051	100	1	12	2.4	0	0	0	0	0	0	0	0	0	0	0;
	1346	2.4	0.308165683	7	-7	1.051	100	1	12	2.4	0	0	0	0	0	0	0	0	0	0	0;
	2622	4.35	-0.489736053	26	-26	1.045	100	1	8	1.6	0	0	0	0	0	0	0	0	0	0	0;
	2622	8.8	-0.489736053	26	-26	1.045	100	1	15	3	0	0	0	0	0	0	0	0	0	0	0;
	291	9.73	-0.205379692	26	-26	1.054	100	1	19	3.8	0	0	0	0	0	0	0	0	0	0	0;
	1490	9.99	6.5	6.5	-6.5	1.057	100	1	10.6	2.12	0	0	0	0	0	0	0	0	0	0	0;
	1671	20	2.70770048	15	-15	1.023	100	1	21.4	4.28	0	0	0	0	0	0	0	0	0	0	0;
	1615	0	0	24	-24	1.051	100	0	39	7.8	0	0	0	0	0	0	0	0	0	0	0;
	1681	16.21	-19.7160007	26.1	-24.36	1.065	100	1	87	17.4	0	0	0	0	0	0	0	0	0	0	0;
	418	15	-6.23163819	50	-40	1.051	100	1	75	15	0	0	0	0	0	0	0	0	0	0	0;
	2658	15	-6.23163819	50	-40	1.051	100	1	75	15	0	0	0	0	0	0	0	0	0	0	0;
	418	15	-6.23163819	50	-40	1.051	100	1	75	15	0	0	0	0	0	0	0	0	0	0	0;
	2658	15	-6.23163819	50	-40	1.051	100	1	75	15	0	0	0	0	0	0	0	0	0	0	0;
	461	-0.68	0.0907612253	12.42	-11.59	1.06	100	1	41.4	8.28	0	0	0	0	0	0	0	0	0	0	0;
	31	6.07	0	0	0	1.034	100	1	6.68	1.34	0	0	0	0	0	0	0	0	0	0	0;
	236	3	0	7	0	1.024	100	1	15	3	0	0	0	0	0	0	0	0	0	0	0;
	236	3.01	0	7	0	1.024	100	1	15	3	0	0	0	0	0	0	0	0	0	0	0;
	1754	0.48	-0.947649844	1	-1	1.04	100	1	1	0	0	0	0	0	0	0	0	0	0	0	0;
	1754	0.48	-0.947649844	1	-1	1.04	100	1	1	0	0	0	0	0	0	0	0	0	0	0	0;
	1754	0.48	-0.947649844	1	-1	1.04	100	1	1	0	0	0	0	0	0	0	0	0	0	0	0;
	898	1.02	0	0	0	1.047	100	1	1.7	0	0	0	0	0	0	0	0	0	0	0	0;
	898	17.23	0	0	0	1.047	100	1	22.6	4.52	0	0	0	0	0	0	0	0	0	0	0;
	120	13.99	-9	9	-9	1.038	100	1	15	3	0	0	0	0	0	0	0	0	0	0	0;
	549	5	3.74096785	22	-10	1.012	100	1	50	5	0	0	0	0	0	0	0	0	0	0	0;
	77	2.43	0	0	0	1.048	100	1	23.5	4.7	0	0	0	0	0	0	0	0	0	0	0;
	124	-5.91	0	0	0	1.047	100	1	0	-7	0	0	0	0	0	0	0	0	0	0	0;
	124	-5.91	0	0	0	1.047	100	1	0	-7	0	0	0	0	0	0	0	0	0	0	0;
	552	-1.27	0	0	0	1.037	100	1	21	4.2	0	0	0	0	0	0	0	0	0	0	0;
	1858	8.99	6	6	-6	1	100	1	9.6	1.92	0	0	0	0	0	0	0	0	0	0	0;
	134	24	13	13	-9	1.042	100	1	25	5	0	0	0	0	0	0	0	0	0	0	0;
	1204	8.4	-17.7450529	25	-20	0.971	100	1	42	8.4	0	0	0	0	0	0	0	0	0	0	0;
	1204	8.4	-17.7450529	25	-20	0.971	100	1	42	8.4	0	0	0	0	0	0	0	0	0	0	0;
	641	2.2	3.28620206	5	-5	1.028	100	1	11	2.2	0	0	0	0	0	0	0	0	0	0	0;
	641	2.2	3.28620206	5	-5	1.028	100	1	11	2.2	0	0	0	0	0	0	0	0	0	0	0;
...
];

%% branch data
%	fbus	tbus	r	x	b	rateA	rateB	rateC	ratio	angle	status	angmin	angmax	Pf	Qf	Pt	Qt
mpc.branch = [
	639	1	0.005799	0.010615	0.0075	0	0	0	1	0	1	0	0	20.6221	-0.7949	-20.6000	0.0000;
	909	2	0.002607	0.017462	0.0324	540	540	540	1	0	1	0	0	20.9169	13.9212	-20.9000	-17.2000;
	2575	3	2.1e-05	0.000125	0.1386	737	737	737	1	0	1	0	0	200.0000	-45.7081	-199.9922	30.2821;
	875	3	0.000145	0.001877	0.0635	2487	2487	2487	1	0	1	0	0	-256.3175	2.8975	256.4029	-8.8787;
	1710	3	0.000319	0.003234	0.0838	1841	1841	1841	1	0	1	0	0	-83.5597	40.3449	83.5854	-49.4493;
	46	3	2.1e-05	0.000125	0.1386	737	737	737	1	0	1	0	0	140.0000	-43.4947	-139.9961	28.0459;
	1073	4	0.037541	0.100529	0.0011	0	0	0	1	0	1	0	0	-28.7101	5.9497	29.0092	-5.2683;
	1533	4	0.090199	0.211388	0.0023	0	0	0	1	0	1	0	0	2.6392	2.7862	-2.6266	-3.0094;
	1658	4	0.09801	0.267574	0	0	0	0	1	0	1	0	0	27.0698	-6.4016	-26.3826	8.2777;
	1370	5	0.009383	0.019753	0	0	0	0	1	0	1	0	0	0.4000	0.1000	-0.4000	-0.1000;
	1370	6	0.001975	0.004444	0	0	0	0	1	0	1	0	0	-2.2904	-20.5784	2.3000	20.6000;
	199	7	0.006163	0.041067	0.0759	446	446	446	1	0	1	0	0	8.9796	-8.0858	-8.9742	-0.2481;
	880	7	0.000652	0.004369	0.0081	558	558	558	1	0	1	0	0	101.5908	-26.2066	-101.5258	25.7481;
	1061	8	0.067019	0.137566	0.0037	0	0	0	1	0	1	0	0	30.6681	-3.2551	-30.0582	4.1263;
	1223	8	0.032754	0.088939	0.0039	0	0	0	1	0	1	0	0	6.9560	2.3244	-6.9384	-2.6738;
	1223	8	0.030184	0.080096	0.0053	0	0	0	1	0	1	0	0	7.7231	2.4656	-7.7033	-2.9525;
	1371	10	0.009733	0.034089	0.0185	0	0	0	1	0	1	0	0	0.2940	12.6869	-0.2777	-14.6936;
	147	11	0.000277	0.002015	0.003	288	288	288	1	0	1	0	0	-94.1276	-26.7704	94.1514	26.6094;
	387	2571	0.00881	0.033995	0.0607	289	289	289	1	0	1	0	0	-24.8263	28.0619	24.9520	-34.3625;
	437	2571	0.004642	0.019832	0.0354	255	255	255	1	0	1	0	0	-107.6398	-5.0610	108.1302	3.2489;
	955	11	0.008861	0.03506	0.0623	288	288	288	1	0	1	0	0	-47.4689	-20.1848	47.6741	14.1164;
	991	11	0.006993	0.032869	0.0557	255	255	255	1	0	1	0	0	-77.3302	-19.4735	77.7303	15.2073;
	1774	2571	0.002173	0.008731	0.0152	0	0	0	1	0	1	0	0	10.8977	19.6741	-10.8872	-21.3213;
	1817	11	0.00077	0.003121	0.0051	0	0	0	1	0	1	0	0	19.1295	35.4290	-19.1181	-35.9523;
	2092	2571	0.004109	0.016138	0.0284	288	288	288	1	0	1	0	0	-45.4660	1.7722	45.5432	-4.6162;
	2591	12	8.3e-05	0.000907	0.0202	1034	1034	1034	1	0	1	0	0	60.6800	-14.2990	-60.6772	12.0525;
	419	12	0.000552	0.006726	0.0939	1786	1786	1786	1	0	1	0	0	-30.9968	-29.1549	31.0043	18.6752;
	808	12	0.000512	0.008012	0.2455	2462	2462	2462	1	0	1	0	0	290.6629	-36.9568	-290.2764	15.3371;
	1158	12	0.001107	0.00918	0.1906	1644	1644	1644	1	0	1	0	0	-175.3866	60.5212	175.7358	-79.2024;
	148	12	6.2e-05	0.000741	0.0173	1095	1095	1095	1	0	1	0	0	57.6900	-19.5992	-57.6880	17.6728;
	808	12	0.000512	0.008019	0.2455	2462	2462	2462	1	0	1	0	0	290.4115	-36.9206	-290.0257	15.2956;
	808	12	0.001153	0.013123	0.1841	1433	1433	1433	1	0	1	0	0	176.7523	-28.6795	-176.4291	11.6107;
	167	13	0.000158	0.000672	0.0719	331	331	331	1	0	1	0	0	13.9004	-7.4027	-13.9001	-0.2862;
	1463	13	4.5e-05	8.9e-05	0.002	268	268	268	1	0	1	0	0	-13.9000	-0.5000	13.9001	0.2862;
	820	14	0.033258	0.090955	0.001	0	0	0	1	0	1	0	0	-4.0905	3.6210	4.1000	-3.7000;
	465	15	0.071303	0.180902	0.0021	0	0	0	1	0	1	0	0	2.2052	-4.5994	-2.1887	4.4123;
	878	15	0.071554	0.18191	0.0021	0	0	0	1	0	1	0	0	6.8422	0.9593	-6.8113	-1.1123;
	2664	16	0.00478	0.028622	0.0547	455	455	455	1	0	1	0	0	60.2326	5.5948	-60.0777	-10.8899;
	451	16	0.00478	0.028583	0.0547	455	455	455	1	0	1	0	0	60.0764	-9.8672	-59.9223	4.5899;
	151	17	0.000257	0.000514	0.0294	0	0	0	1	0	1	0	0	35.0030	3.7905	-35.0000	-6.9000;
	987	18	0.000257	0.002153	0.2147	452	452	452	1	0	1	0	0	-111.1555	-29.7387	111.1878	8.2266;
	1264	18	0.000277	0.000869	0.0931	481	481	481	1	0	1	0	0	156.2551	12.3807	-156.1878	-21.6266;
	1903	19	0.000756	0.00252	0	0	0	0	1	0	1	0	0	-18.6692	-0.8922	18.6715	0.9000;
	1247	20	0.000237	0.00083	0.1863	268	268	268	1	0	1	0	0	95.5179	0.3425	-95.4973	-20.0143;
	1301	20	0.000178	0.000612	0.1377	268	268	268	1	0	1	0	0	-18.1967	-5.5012	18.1973	-9.0857;
	59	21	0.002568	0.011753	0.0203	424	424	424	1	0	1	0	0	12.3443	-2.9150	-12.3405	0.7968;
	1908	21	0.002568	0.011615	0.0228	290	290	290	1	0	1	0	0	-3.8598	2.4008	3.8605	-4.7968;
	591	22	0.102293	0.226757	0.0025	0	0	0	1	0	1	0	0	-9.6000	7.0000	9.7187	-7.0442;
	855	22	0.177551	0.405291	0.0046	0	0	0	1	0	1	0	0	10.7292	-13.8186	-10.2664	14.3301;
	1199	22	0.088264	0.161566	0.0017	0	0	0	1	0	1	0	0	4.0770	-4.2763	-4.0523	4.1141;
	820	23	0.043336	0.11867	0.001	0	0	0	1	0	1	0	0	-7.1095	-3.2210	7.1345	3.1833;
	1059	23	0.067775	0.139834	0.001	0	0	0	1	0	1	0	0	-1.8293	2.1126	1.8344	-2.2090;
	1691	23	0.047367	0.16125	0.0021	0	0	0	1	0	1	0	0	18.4356	1.5610	-18.2866	-1.2799;
	1922	23	0.004031	0.016629	0.001	0	0	0	1	0	1	0	0	24.0055	-6.0168	-23.9823	6.0055;
	1377	24	9.9e-05	0.00077	0.078	379	379	379	1	0	1	0	0	-84.5034	0.7642	84.5100	-9.1347;
	1377	2573	9.9e-05	0.00077	0.077	379	379	379	1	0	1	0	0	-78.2544	-0.9438	78.2600	-7.3262;
	1908	25	0.000514	0.003437	0.0061	290	290	290	1	0	1	0	0	3.8598	-2.4008	-3.8597	1.7593;
	1914	25	0.005476	0.036879	0.1255	522	522	522	1	0	1	0	0	-46.3587	11.5808	46.4868	-23.9793;
	59	25	0.000514	0.003457	0.0061	418	418	418	1	0	1	0	0	60.6465	-17.1318	-60.6271	16.6200;
	1138	26	0.003477	0.01118	0.0187	304	304	304	1	0	1	0	0	-5.9239	-21.4995	5.9379	19.4352;
	1409	26	0.000612	0.003121	0.0152	270	270	270	1	0	1	0	0	6.9387	9.7207	-6.9379	-11.4352;
	2755	27	0.013857	0.035525	0.0004	0	0	0	1	0	1	0	0	22.0639	-5.4808	-22.0000	5.6000;
	1514	28	2.4e-05	0.000144	0.0213	701	701	701	1	0	1	0	0	-2.1000	-2.3157	2.1000	0.1000;
	1514	2574	7.1e-05	0.000162	0.0162	251	251	251	1	0	1	0	0	39.1011	8.3174	-39.1000	-10.0000;
	249	29	0.068027	0.173091	0.002	0	0	0	1	0	1	0	0	-20.5247	0.0681	20.7975	0.4133;
	296	29	0.027211	0.068783	0.001	0	0	0	1	0	1	0	0	1.5583	0.2667	-1.5576	-0.3730;
	776	29	0.03099	0.202822	0.002	0	0	0	1	0	1	0	0	26.5412	-1.4588	-26.3399	2.5597;
	1274	30	0.000257	0.001165	0.002	405	405	405	1	0	1	0	0	3.5039	-40.1955	-3.5000	40.0000;
	1906	31	0.047317	0.131595	0.0015	0	0	0	1	0	1	0	0	1.6326	-1.9615	-1.6300	1.8000;
	2686	32	0.075838	0.224742	0.0027	0	0	0	1	0	1	0	0	3.8998	5.8804	-3.8649	-6.0752;
	648	32	0.028471	0.089695	0.001	0	0	0	1	0	1	0	0	14.6400	-7.0793	-14.5707	7.1889;
	1337	32	0.080373	0.255732	0.003	0	0	0	1	0	1	0	0	-6.3000	2.8000	6.3356	-3.0137;
	2050	32	0.000252	0.000504	0	0	0	0	1	0	1	0	0	-0.0000	0.2000	0.0000	-0.2000;
	1907	33	0.000444	0.001136	0	0	0	0	1	0	1	0	0	2.4000	-0.3999	-2.4000	0.4000;
	1370	34	0.057284	0.130864	0	0	0	0	1	0	1	0	0	0.0000	-0.0000	-0.0000	0.0000;
	242	35	0.054749	0.157445	0.0027	0	0	0	1	0	1	0	0	20.1788	-1.6738	-19.9716	1.9798;
	1507	35	0.038549	0.103049	0.0012	0	0	0	1	0	1	0	0	-8.6000	1.4000	8.6276	-1.4538;
	2117	35	0.012598	0.052406	0.0006	0	0	0	1	0	1	0	0	14.6815	0.6678	-14.6560	-0.6260;
	800	36	0.006914	0.020741	0	0	0	0	1	0	1	0	0	0.7012	-4.0963	-0.7000	4.1000;
	712	37	0.032124	0.082892	0.003	0	0	0	1	0	1	0	0	7.8971	3.4221	-7.8755	-3.7013;
	1655	37	0.025573	0.09869	0.0012	0	0	0	1	0	1	0	0	1.4439	-9.0586	-1.4245	9.0013;
	637	39	0.005709	0.037926	0.0688	492	492	492	1	0	1	0	0	-43.5580	-14.0580	43.6626	7.1918;
	2032	39	0.001758	0.011654	0.0208	492	492	492	1	0	1	0	0	122.2996	1.6579	-122.0626	-2.3918;
	2585	40	0.001383	0.009462	0.0172	463	463	463	1	0	1	0	0	81.5747	7.8280	-81.4874	-9.0610;
	593	40	0.00156	0.006933	0.0121	432	432	432	1	0	1	0	0	-15.0818	6.9012	15.0860	-8.1683;
	788	40	0.006376	0.028733	0.0506	432	432	432	1	0	1	0	0	15.6011	-25.6800	-15.5542	20.5452;
	1291	40	0.00158	0.010627	0.0192	481	481	481	1	0	1	0	0	-56.8075	-1.6982	56.8556	-0.0159;
	1108	41	0.001086	0.003536	0.3766	506	506	506	1	0	1	0	0	40.2185	-38.8560	-40.2000	-3.7000;
	1108	41	0.001086	0.003536	0.3766	506	506	506	1	0	1	0	0	40.2185	-38.8560	-40.2000	-3.7000;
	235	42	0.04059	0.110708	0.0013	0	0	0	1	0	1	0	0	-0.0124	2.1936	0.0142	-2.3323;
	248	42	0.073646	0.225598	0.0087	0	0	0	1	0	1	0	0	-11.4386	3.5907	11.5368	-4.2502;
	285	42	0.02066	0.088687	0.0021	0	0	0	1	0	1	0	0	37.1900	0.5665	-36.9346	0.2963;
	1933	42	0.019904	0.08516	0.001	0	0	0	1	0	1	0	0	-3.5144	4.9008	3.5210	-4.9833;
	1935	42	0.014361	0.068027	0.0035	0	0	0	1	0	1	0	0	3.2566	-2.6235	-3.2544	2.2477;
	1770	42	0.059209	0.150164	0.0021	0	0	0	1	0	1	0	0	-24.4000	-4.6000	24.7438	5.2448;
	183	43	0.004741	0.020385	0.0334	0	0	0	1	0	1	0	0	-22.1605	3.0743	22.1824	-6.7050;
	2006	43	0.009027	0.048869	0.084	351	351	351	1	0	1	0	0	40.7681	2.7511	-40.6308	-11.4364;
	2036	43	0.003516	0.016257	0.0273	311	311	311	1	0	1	0	0	19.0250	-21.1153	-19.0014	18.1867;
	265	44	0.059461	0.163265	0.0018	0	0	0	1	0	1	0	0	12.4995	-2.4976	-12.4087	2.5567;
	1652	44	0.146384	0.373394	0.0051	0	0	0	1	0	1	0	0	17.0562	-6.7941	-16.5913	7.4433;
	389	45	0.000514	0.003417	0.0278	452	452	452	1	0	1	0	0	-38.4649	3.6791	38.4722	-6.5663;
	408	45	0.001084	0.007198	0.0132	448	448	448	1	0	1	0	0	100.4537	-14.1152	-100.3483	13.4209;
	1955	45	0.000523	0.002436	0.0167	348	348	348	1	0	1	0	0	-72.2394	10.9939	72.2659	-12.6338;
	389	45	0.000514	0.003457	0.0203	356	356	356	1	0	1	0	0	-38.0381	3.9521	38.0452	-6.0478;
	408	45	0.001086	0.007249	0.0132	540	540	540	1	0	1	0	0	99.7687	-13.9459	-99.6645	13.2468;
	1954	45	0.000553	0.002469	0.0157	405	405	405	1	0	1	0	0	-53.2159	10.0000	53.2314	-11.5891;
	408	45	0.001086	0.007269	0.0132	540	540	540	1	0	1	0	0	99.5055	-13.8701	-99.4019	13.1692;
	380	47	0.016125	0.068279	0.0081	0	0	0	1	0	1	0	0	19.2022	-8.9993	-19.1351	8.4202;
	1699	47	0.059209	0.150416	0.0021	0	0	0	1	0	1	0	0	-16.7000	14.7000	16.9702	-14.2404;
	380	47	0.016125	0.068279	0.0081	0	0	0	1	0	1	0	0	19.2022	-8.9993	-19.1351	8.4202;
	1610	48	0.102293	0.245906	0.0027	0	0	0	1	0	1	0	0	4.4940	3.6072	-4.4639	-3.8467;
	2120	48	0.036533	0.088435	0.001	0	0	0	1	0	1	0	0	-4.7536	-3.1353	4.7639	3.0467;
	1006	49	0.019148	0.081381	0.0012	0	0	0	1	0	1	0	0	-26.7576	3.8672	26.8900	-3.4315;
	1585	49	0.02318	0.04258	0.0006	0	0	0	1	0	1	0	0	0.0000	-0.1000	0.0000	0.0363;
	1972	49	0.002268	0.022424	0.0002	0	0	0	1	0	1	0	0	33.5536	-1.2933	-33.5296	1.5100;
	2121	2576	0.012094	0.030486	0.0004	0	0	0	1	0	1	0	0	-16.6236	6.4013	16.6598	-6.3525;
	1006	2576	0.03351	0.088435	0.001	0	0	0	1	0	1	0	0	-9.4040	1.2512	9.4326	-1.2818;
	1971	2576	0.00252	0.02066	0.0002	0	0	0	1	0	1	0	0	17.4752	-3.9490	-17.4676	3.9903;
	1103	50	0.001837	0.011694	0.0759	467	467	467	1	0	1	0	0	-96.4003	-16.8195	96.5564	9.3418;
	1256	50	0.001067	0.007131	0.0132	413	413	413	1	0	1	0	0	-6.7000	-3.3000	6.7005	1.8260;
	1709	50	0.001284	0.008593	0.0152	541	541	541	1	0	1	0	0	-11.1520	-3.2189	11.1534	1.5280;
	2895	50	0.001284	0.008593	0.0162	541	541	541	1	0	1	0	0	68.4685	6.2759	-68.4142	-7.7289;
	2895	50	0.001284	0.008533	0.0162	541	541	541	1	0	1	0	0	68.9467	6.2545	-68.8917	-7.7050;
	2621	51	0.000494	0.000928	0.0699	0	0	0	1	0	1	0	0	-19.6000	0.3000	19.6018	-7.9010;
	434	51	0.000184	0.00159	0.1661	422	422	422	1	0	1	0	0	-226.6223	34.3407	226.7123	-51.6385;
	1497	51	0.000198	0.001711	0.1711	385	385	385	1	0	1	0	0	162.5777	-37.9547	-162.5280	19.7713;
	1522	51	0.000751	0.003358	0.1534	385	385	385	1	0	1	0	0	150.5582	-55.6809	-150.3861	39.7683;
	450	52	0.000178	0.001047	0.1499	452	452	452	1	0	1	0	0	82.4826	-39.2574	-82.4695	23.4441;
	651	2942	0.000119	0.000474	0.0688	452	452	452	1	0	1	0	0	53.9034	4.0915	-53.9000	-11.2000;
	1247	52	0.000316	0.002232	0.2774	452	452	452	1	0	1	0	0	-82.4490	-5.8203	82.4695	-23.4441;
	2603	53	0.047115	0.108088	0.0031	0	0	0	1	0	1	0	0	-9.0000	-0.1000	9.0357	-0.1510;
	1126	53	0.036281	0.154195	0.0037	0	0	0	1	0	1	0	0	-15.5966	-4.2424	15.6861	4.2281;
	1686	54	0.037227	0.106836	0.0328	0	0	0	1	0	1	0	0	24.2321	-2.9255	-24.0406	-0.2527;
	1929	54	0.006089	0.020756	0.0067	0	0	0	1	0	1	0	0	-12.0079	-3.0068	12.0160	2.2791;
	1109	55	0.000729	0.005118	0.0933	389	389	389	1	0	1	0	0	9.7005	3.9056	-9.6993	-13.5639;
	1109	55	0.000755	0.005235	0.0909	419	419	419	1	0	1	0	0	9.4962	3.8159	-9.4950	-13.2257;
	321	56	0.001787	0.01946	0.4214	1579	1579	1579	1	0	1	0	0	796.8154	-45.0719	-786.0402	117.9295;
	638	57	0.001719	0.00877	0.0157	321	321	321	1	0	1	0	0	-48.3247	4.0702	48.3614	-5.6188;
	1538	57	0.009165	0.04318	0.077	321	321	321	1	0	1	0	0	129.9566	-15.3060	-128.5614	13.3188;
	190	59	0.004879	0.032454	0.0602	487	487	487	1	0	1	0	0	-8.4000	10.3000	8.4116	-16.5802;
	258	59	0.006341	0.042746	0.0785	418	418	418	1	0	1	0	0	-19.3000	3.2000	19.3256	-11.3012;
	284	59	0.006914	0.031249	0.0547	327	327	327	1	0	1	0	0	-43.9156	1.4839	44.0441	-6.6489;
	396	60	0.000582	0.007652	0.2643	2487	2487	2487	1	0	1	0	0	-61.8685	22.6701	61.8968	-50.3609;
	1001	60	0.001648	0.021634	0.748	2487	2487	2487	1	0	1	0	0	-37.5383	-168.6266	37.8451	95.6170;
	1240	60	0.000838	0.014301	0.5198	2487	2487	2487	1	0	1	0	0	456.9276	-46.5529	-455.2703	19.8200;
	2897	60	0.001163	0.015312	0.5285	2487	2487	2487	1	0	1	0	0	-161.7334	-3.4818	162.0263	-48.7320;
	396	60	0.000575	0.007576	0.2614	2487	2487	2487	1	0	1	0	0	-62.4958	23.1834	62.5244	-50.5625;
	1001	60	0.001646	0.021633	0.7479	2487	2487	2487	1	0	1	0	0	-37.5287	-168.6318	37.8351	95.6328;
	1240	60	0.000838	0.014287	0.5198	2487	2487	2487	1	0	1	0	0	457.3727	-46.5977	-455.7122	19.8923;
	1723	60	0.00117	0.015339	0.5285	2487	2487	2487	1	0	1	0	0	-171.4232	-1.4443	171.7545	-50.2912;
	2897	60	0.001821	0.017874	0.4318	1382	1382	1382	1	0	1	0	0	-137.6482	1.6302	137.9833	-44.1527;
	182	61	0.003023	0.01159	0.0002	0	0	0	1	0	1	0	0	5.5009	1.6814	-5.5000	-1.7000;
	63	62	0.011163	0.020434	0.0002	0	0	0	1	0	1	0	0	0.6001	0.6803	-0.6000	-0.7000;
	1589	63	0.070043	0.190728	0.0021	0	0	0	1	0	1	0	0	3.3613	1.6876	-3.3512	-1.8700;
	1684	2577	0.110103	0.294533	0.004	0	0	0	1	0	1	0	0	17.5393	-3.2023	-17.1946	3.7232;
	1755	63	0.034014	0.145629	0.0018	0	0	0	1	0	1	0	0	8.6957	6.5732	-8.6556	-6.5827;
	65	2577	0.000171	0.000313	0.0003	0	0	0	1	0	1	0	0	-17.1941	3.6944	17.1946	-3.7232;
	738	64	0.000672	0.003477	0.0365	254	254	254	1	0	1	0	0	39.6096	5.2892	-39.6000	-9.4000;
	252	66	0.138123	0.332	0.001	0	0	0	1	0	1	0	0	7.2111	4.8304	-7.1059	-4.6747;
	1773	2578	0.000988	0.003457	0	0	0	0	1	0	1	0	0	-19.2092	-6.9398	19.2133	6.9542;
	2145	66	0.008395	0.02321	0	0	0	0	1	0	1	0	0	5.4077	-11.1369	-5.3941	11.1747;
	1894	67	0.000632	0.004188	0.0081	471	471	471	1	0	1	0	0	0.4000	2.3392	-0.4000	-3.2000;
	1894	2579	0.000612	0.004148	0.0071	471	471	471	1	0	1	0	0	42.5107	6.5179	-42.5000	-7.2000;
	1362	69	0.000672	0.004405	0.0081	541	541	541	1	0	1	0	0	53.8218	-0.0046	-53.8036	-0.7418;
	2090	69	0.000968	0.004602	0.0081	304	304	304	1	0	1	0	0	36.3032	-0.3305	-36.2913	-0.4784;
	1362	69	0.000632	0.004444	0.0081	440	440	440	1	0	1	0	0	53.4220	0.5330	-53.4052	-1.2800;
	2095	70	0.001975	0.013215	0.0243	541	541	541	1	0	1	0	0	29.8942	-2.4374	-29.8777	-0.0562;
	2096	70	0.001956	0.013037	0.0243	0	0	0	1	0	1	0	0	53.8769	-10.5948	-53.8223	8.3562;
	1761	71	0.002933	0.010267	0.0032	0	0	0	1	0	1	0	0	15.5586	3.0050	-15.5522	-3.3555;
	1911	71	0.0028	0.007511	0.0022	0	0	0	1	0	1	0	0	-28.8818	-3.9968	28.9022	3.7958;
	74	2580	2e-05	0.000198	0.0121	261	261	261	1	0	1	0	0	0.0000	-1.2716	-0.0000	-0.0000;
	74	72	2e-05	0.000198	0.0142	261	261	261	1	0	1	0	0	0.0000	-1.4923	0.0000	0.0000;
	2653	74	0.002037	0.010904	0.0187	352	352	352	1	0	1	0	0	-29.7112	-0.8946	29.7283	-0.9778;
	423	74	0.000415	0.002015	0.1266	428	428	428	1	0	1	0	0	-77.5577	12.2943	77.5828	-25.4773;
	483	74	0.000395	0.00156	0.1893	426	426	426	1	0	1	0	0	-192.2172	4.2658	192.3569	-23.5971;
	791	74	4e-05	0.000178	0.0152	0	0	0	1	0	1	0	0	133.5000	-23.3938	-133.4930	21.8274;
	2792	74	0.001323	0.012444	0.0678	935	935	935	1	0	1	0	0	152.0240	12.8366	-151.7318	-17.2397;
	1631	74	0.000454	0.002133	0.2511	268	268	268	1	0	1	0	0	-76.0000	-7.3000	76.0251	-18.9646;
	1855	74	0.000119	0.000691	0.1002	387	387	387	1	0	1	0	0	-189.3750	10.1392	189.4159	-20.4306;
	1886	74	0.00083	0.005175	0.0203	323	323	323	1	0	1	0	0	-52.6405	1.0682	52.6625	-3.0641;
	2792	74	0.001314	0.012115	0.0673	943	943	943	1	0	1	0	0	156.1523	12.9743	-155.8462	-17.2513;
	2926	74	5.9e-05	0.000217	0.0496	323	323	323	1	0	1	0	0	120.0000	-13.8347	-119.9918	8.6520;
	1853	74	5.9e-05	0.000217	0.0466	323	323	323	1	0	1	0	0	138.0000	-16.1542	-137.9892	11.2964;
	1640	75	0.000854	0.001563	0.0007	0	0	0	1	0	1	0	0	15.2021	5.3280	-15.2000	-5.4000;
	1909	76	0.000494	0.000988	0	0	0	0	1	0	1	0	0	-20.6977	1.7614	20.7000	-1.7567;
	124	77	0.062232	0.138574	0.0015	0	0	0	1	0	1	0	0	-11.8200	4.6000	11.9096	-4.5692;
	1903	77	0.035525	0.084782	0.0009	0	0	0	1	0	1	0	0	15.2634	-5.7705	-15.1796	5.8692;
	1520	78	0.000158	0.000948	0.002	348	348	348	1	0	1	0	0	7.8001	5.5900	-7.8000	-5.8000;
	125	79	0.035273	0.218443	0.0029	0	0	0	1	0	1	0	0	40.3243	2.4146	-39.7947	0.5546;
	210	79	0.000252	0.000504	0	0	0	0	1	0	1	0	0	0.0000	0.0000	0.0000	0.0000;
	354	79	0.034442	0.11809	0.0091	0	0	0	1	0	1	0	0	-2.4419	1.5292	2.4452	-2.4796;
	125	79	0.034266	0.221466	0	0	0	0	1	0	1	0	0	39.7977	2.8020	-39.2961	0.4399;
	310	80	0.0839	0.229025	0.0025	0	0	0	1	0	1	0	0	11.5762	0.2866	-11.4773	-0.2987;
	667	80	0.048627	0.123205	0.0014	0	0	0	1	0	1	0	0	-4.3658	-2.7254	4.3773	2.5987;
	903	81	0.001521	0.007076	0.0118	302	302	302	1	0	1	0	0	0.0000	0.0000	0.0000	-1.3097;
	1701	81	0.002469	0.011457	0.0203	315	315	315	1	0	1	0	0	-40.5829	-4.9078	40.6200	2.8296;
	524	82	0.001442	0.009699	0.0172	566	566	566	1	0	1	0	0	29.6267	10.2141	-29.6131	-11.9510;
	568	82	0.001422	0.009541	0.0172	566	566	566	1	0	1	0	0	30.0006	10.3129	-29.9869	-12.0490;
	159	83	0.024691	0.056941	0.001	0	0	0	1	0	1	0	0	39.4609	-15.9796	-39.0288	16.8725;
	406	83	0.0194	0.038549	0.0033	0	0	0	1	0	1	0	0	-11.1893	9.1093	11.2288	-9.3725;
...
];

%%-----  OPF Data  -----%%
%% generator cost data
%	1	startup	shutdown	n	x1	y1	...	xn	yn
%	2	startup	shutdown	n	c(n-1)	...	c0
mpc.gencost = [
	2	0	0	3	0	1	0;
	2	0	0	3	0	1	0;
	2	0	0	3	0	1	0;
	2	0	0	3	0	1	0;
	2	0	0	3	0	1	0;
	2	0	0	3	0	1	0;
	2	0	0	3	0	1	0;
	2	0	0	3	0	1	0;
	2	0	0	3	0	1	0;
	2	0	0	3	0	1	0;
	2	0	0	3	0	1	0;
	2	0	0	3	0	1	0;
	2	0	0	3	0	1	0;
	2	0	0	3	0	1	0;
	2	0	0	3	0	1	0;
	2	0	0	3	0	1	0;
	2	0	0	3	0	1	0;
	2	0	0	3	0	2	0;
	2	0	0	3	0	1	0;
	2	0	0	3	0	1	0;
	2	0	0	3	0	1	0;
	2	0	0	3	0	1	0;
	2	0	0	3	0	1	0;
	2	0	0	3	0	1	0;
	2	0	0	3	0	1	0;
	2	0	0	3	0	1	0;
	2	0	0	3	0	1	0;
	2	0	0	3	0	1	0;
	2	0	0	3	0	1	0;
	2	0	0	3	0	1	0;
	2	0	0	3	0	1	0;
	2	0	0	3	0	1	0;
	2	0	0	3	0	1	0;
	2	0	0	3	0	1	0;
	2	0	0	3	0	1	0;
	2	0	0	3	0	1	0;
	2	0	0	3	0	1	0;
	2	0	0	3	0	1	0;
	2	0	0	3	0	1	0;
	2	0	0	3	0	1	0;
	2	0	0	3	0	1	0;
	2	0	0	3	0	1	0;
	2	0	0	3	0	1	0;
	2	0	0	3	0	1	0;
	2	0	0	3	0	1	0;
	2	0	0	3	0	1	0;
	2	0	0	3	0	1	0;
	2	0	0	3	0	1	0;
	2	0	0	3	0	1	0;
	2	0	0	3	0	1	0;
	2	0	0	3	0	1	0;
	2	0	0	3	0	1	0;
	2	0	0	3	0	1	0;
	2	0	0	3	0	1	0;
	2	0	0	3	0	1	0;
	2	0	0	3	0	1	0;
	2	0	0	3	0	1	0;
	2	0	0	3	0	1	0;
	2	0	0	3	0	1	0;
	2	0	0	3	0	1	0;
	2	0	0	3	0	1	0;
	2	0	0	3	0	1	0;
	2	0	0	3	0	1	0;
	2	0	0	3	0	1	0;
	2	0	0	3	0	1	0;
	2	0	0	3	0	1	0;
	2	0	0	3	0	1	0;
	2	0	0	3	0	1	0;
	2	0	0	3	0	1	0;
	2	0	0	3	0	1	0;
	2	0	0	3	0	1	0;
	2	0	0	3	0	1	0;
	2	0	0	3	0	1	0;
	2	0	0	3	0	1	0;
	2	0	0	3	0	1	0;
	2	0	0	3	0	1	0;
	2	0	0	3	0	1	0;
	2	0	0	3	0	1	0;
	2	0	0	3	0	1	0;
	2	0	0	3	0	1	0;
	2	0	0	3	0	1	0;
	2	0	0	3	0	1	0;
	2	0	0	3	0	1	0;
	2	0	0	3	0	1	0;
	2	0	0	3	0	1	0;
	2	0	0	3	0	1	0;
	2	0	0	3	0	2	0;
	2	0	0	3	0	1	0;
	2	0	0	3	0	1	0;
	2	0	0	3	0	1	0;
	2	0	0	3	0	1	0;
	2	0	0	3	0	1	0;
	2	0	0	3	0	1	0;
	2	0	0	3	0	2	0;
	2	0	0	3	0	1	0;
	2	0	0	3	0	1	0;
	2	0	0	3	0	1	0;
	2	0	0	3	0	1	0;
	2	0	0	3	0	1	0;
	2	0	0	3	0	1	0;
	2	0	0	3	0	1	0;
	2	0	0	3	0	1	0;
	2	0	0	3	0	1	0;
	2	0	0	3	0	1	0;
	2	0	0	3	0	1	0;
	2	0	0	3	0	1	0;
	2	0	0	3	0	1	0;
	2	0	0	3	0	1	0;
	2	0	0	3	0	1	0;
	2	0	0	3	0	1	0;
	2	0	0	3	0	1	0;
	2	0	0	3	0	1	0;
	2	0	0	3	0	1	0;
	2	0	0	3	0	1	0;
	2	0	0	3	0	1	0;
	2	0	0	3	0	1	0;
	2	0	0	3	0	1	0;
	2	0	0	3	0	1	0;
	2	0	0	3	0	1	0;
	2	0	0	3	0	1	0;
	2	0	0	3	0	1	0;
	2	0	0	3	0	1	0;
	2	0	0	3	0	1	0;
	2	0	0	3	0	1	0;
	2	0	0	3	0	2	0;
	2	0	0	3	0	2	0;
	2	0	0	3	0	1	0;
	2	0	0	3	0	1	0;
	2	0	0	3	0	1	0;
	2	0	0	3	0	1	0;
	2	0	0	3	0	1	0;
	2	0	0	3	0	1	0;
	2	0	0	3	0	2	0;
	2	0	0	3	0	2	0;
	2	0	0	3	0	1	0;
	2	0	0	3	0	1	0;
	2	0	0	3	0	1	0;
	2	0	0	3	0	1	0;
	2	0	0	3	0	1	0;
	2	0	0	3	0	1	0;
	2	0	0	3	0	1	0;
	2	0	0	3	0	1	0;
	2	0	0	3	0	1	0;
	2	0	0	3	0	1	0;
	2	0	0	3	0	1	0;
	2	0	0	3	0	1	0;
	2	0	0	3	0	1	0;
	2	0	0	3	0	1	0;
	2	0	0	3	0	1	0;
	2	0	0	3	0	1	0;
	2	0	0	3	0	1	0;
	2	0	0	3	0	1	0;
	2	0	0	3	0	2	0;
	2	0	0	3	0	2	0;
	2	0	0	3	0	1	0;
	2	0	0	3	0	1	0;
	2	0	0	3	0	1	0;
	2	0	0	3	0	1	0;
	2	0	0	3	0	1	0;
	2	0	0	3	0	1	0;
	2	0	0	3	0	1	0;
	2	0	0	3	0	1	0;
	2	0	0	3	0	1	0;
	2	0	0	3	0	1	0;
	2	0	0	3	0	1	0;
	2	0	0	3	0	1	0;
	2	0	0	3	0	1	0;
	2	0	0	3	0	1	0;
	2	0	0	3	0	1	0;
	2	0	0	3	0	1	0;
	2	0	0	3	0	1	0;
	2	0	0	3	0	1	0;
	2	0	0	3	0	1	0;
	2	0	0	3	0	2	0;
	2	0	0	3	0	1	0;
	2	0	0	3	0	1	0;
	2	0	0	3	0	1	0;
	2	0	0	3	0	1	0;
	2	0	0	3	0	1	0;
	2	0	0	3	0	1	0;
	2	0	0	3	0	1	0;
	2	0	0	3	0	1	0;
	2	0	0	3	0	1	0;
	2	0	0	3	0	1	0;
	2	0	0	3	0	1	0;
	2	0	0	3	0	1	0;
	2	0	0	3	0	1	0;
	2	0	0	3	0	1	0;
	2	0	0	3	0	1	0;
	2	0	0	3	0	1	0;
	2	0	0	3	0	1	0;
	2	0	0	3	0	1	0;
	2	0	0	3	0	1	0;
	2	0	0	3	0	1	0;
	2	0	0	3	0	1	0;
	2	0	0	3	0	1	0;
	2	0	0	3	0	1	0;
	2	0	0	3	0	1	0;
	2	0	0	3	0	1	0;
	2	0	0	3	0	1	0;
...
];
